Circuit: * Z:\home\steve\pcbs\TfaC\PCB\spice\divider.asc

Direct Newton iteration for .op point succeeded.

Date: Mon Jun 01 21:15:22 2015
Total elapsed time: 0.056 seconds.

tnom = 27
temp = 27
method = modified trap
totiter = 65
traniter = 62
tranpoints = 32
accept = 32
rejected = 0
matrix size = 3
fillins = 0
solver = Normal
Matrix Compiler1: 50 bytes object code size
Matrix Compiler2: 175 bytes object code size

